LTspice 24.0.12 for Windows
Circuit: * 4x4 Resistive Crossbar
Start Time: Sun May 11 19:44:31 2025
solver = Normal
Maximum thread count: 20
tnom = 27
temp = 27
method = modified trap
Direct Newton iteration for .op point succeeded.
Total elapsed time: 0.082 seconds.

